32
	Energy:      -6.2585953
C        -10.77411        3.29230       -0.00188
C         -9.49071        4.10367        0.07545
H        -10.85669        2.78202       -0.96685
H        -11.64370        3.94735        0.11095
H        -10.81164        2.53806        0.79054
C         -8.25429        3.21064       -0.02757
H         -9.47092        4.65467        1.02305
H         -9.48532        4.84569       -0.73135
C         -6.96776        4.03713        0.01469
H         -8.29009        2.63589       -0.96112
H         -8.25598        2.48765        0.79721
C         -5.72725        3.14293       -0.02430
H         -6.95074        4.64570        0.92706
H         -6.95006        4.72934       -0.83590
C         -4.44279        3.97376       -0.00450
H         -5.74865        2.52128       -0.92768
H         -5.73889        2.46330        0.83645
C         -3.20083        3.08083       -0.01244
H         -4.43030        4.61054        0.88853
H         -4.42332        4.63906       -0.87622
C         -1.91685        3.91244       -0.00562
H         -3.21632        2.43694       -0.90025
H         -3.21691        2.42269        0.86478
C         -0.67624        3.01949        0.00005
H         -1.90459        4.56328        0.87724
H         -1.89683        4.56417       -0.88757
C          0.60283        3.84146       -0.00158
H         -0.68396        2.36511       -0.87941
H         -0.68698        2.37331        0.88549
H          0.66191        4.47340       -0.89347
H          1.47672        3.18249        0.00610
H          0.65611        4.48658        0.88123
