212
	Energy:     399.8895460
C         -7.72983        3.25701       -0.00895
C         -6.40662        4.01592        0.04058
H         -7.82504        2.68019       -0.93342
H         -8.57250        3.95680        0.03586
H         -7.82474        2.56873        0.83836
C         -5.18512        3.08240       -0.01770
H         -6.37927        4.61181        0.95814
H         -6.37735        4.71880       -0.80271
C         -3.84796        3.85531        0.02887
H         -5.23461        2.48409       -0.93253
H         -5.23288        2.38314        0.82920
C         -2.60533        2.93105       -0.01966
H         -3.81881        4.46068        0.93953
H         -3.81534        4.55073       -0.82242
C         -1.25462        3.70111        0.01817
H         -2.65234        2.32209       -0.92694
H         -2.65065        2.24131        0.83562
C          0.00351        2.77915       -0.01735
H         -1.22632        4.31778        0.92118
H         -1.22187        4.38539       -0.84181
C          1.37207        3.54008        0.01003
H         -0.04406        2.15866       -0.91724
H         -0.04320        2.10062        0.84600
C          2.64300        2.61564       -0.01430
H          1.40311        4.16662        0.90688
H          1.40706        4.21395       -0.85690
C          4.03171        3.36439        0.00439
H          2.59293        1.98646       -0.90892
H          2.59317        1.94645        0.85489
C          5.31486        2.43566       -0.01324
H          4.06730        3.99713        0.89762
H          4.06960        4.03110       -0.86672
C          6.72434        3.17213        0.00023
H          5.26172        1.80207       -0.90536
H          5.26180        1.77209        0.85900
C          8.02060        2.23927       -0.01558
H          6.76465        3.80685        0.89253
H          6.76490        3.83561       -0.87234
C          9.45042        2.96529       -0.00408
H          7.96472        1.60528       -0.90775
H          7.96522        1.57758        0.85725
C         10.76133        2.02951       -0.02215
H          9.49477        3.59839        0.88953
H          9.49284        3.62891       -0.87593
C         12.21050        2.74791       -0.01046
H         10.70348        1.39815       -0.91626
H         10.70510        1.36679        0.84948
C         13.53769        1.81088       -0.03388
H         12.25799        3.37677        0.88611
H         12.25359        3.41409       -0.88004
C         15.00485        2.52484       -0.02089
H         13.47870        1.18421       -0.93126
H         13.48228        1.14513        0.83530
C         16.34959        1.58837       -0.05207
H         15.05468        3.14764        0.87978
H         15.04722        3.19524       -0.88710
C         17.83307        2.30097       -0.03746
H         16.29015        0.96777       -0.95360
H         16.29672        0.91820        0.81379
C         19.19595        1.36680       -0.07816
H         17.88464        2.91656        0.86803
H         17.87335        2.97666       -0.89955
C         20.69375        2.08075       -0.06245
H         19.13642        0.75293       -0.98424
H         19.14725        0.69149        0.78390
C         22.07444        1.15031       -0.11337
H         20.74667        2.68898        0.84789
H         20.73073        2.76187       -0.92031
C         23.58421        1.86769       -0.09836
H         22.01472        0.54256       -1.02350
H         22.03145        0.47035        0.74530
C         24.98135        0.94193       -0.15845
H         23.63838        2.47021        0.81566
H         23.61699        2.55283       -0.95312
C         26.50047        1.66407       -0.14761
H         24.92096        0.33774       -1.07086
H         24.94536        0.25955        0.69859
C         27.91172        0.74323       -0.21383
H         26.55608        2.26463        0.76759
H         26.52842        2.34993       -1.00190
C         29.43741        1.47062       -0.21177
H         27.84998        0.13823       -1.12558
H         27.88353        0.06232        0.64465
C         30.85962        0.55425       -0.27994
H         29.49498        2.07436        0.70120
H         29.46016        2.15270       -1.06921
C         32.38913        1.28646       -0.29101
H         30.79598       -0.05650       -1.18769
H         30.83932       -0.12078        0.58337
C         33.81858        0.37351       -0.35740
H         32.44940        1.89809        0.61650
H         32.40661        1.96059       -1.15484
C         35.34940        1.10924       -0.38401
H         33.75275       -0.24655       -1.25864
H         33.80542       -0.29241        0.51308
C         36.78206        0.19823       -0.44680
H         35.41319        1.73120        0.51620
H         35.36196        1.77328       -1.25573
C         38.31213        0.93549       -0.48845
H         36.71385       -0.43192       -1.34083
H         36.77458       -0.45791        0.43112
C         39.74388        0.02455       -0.54819
H         38.38020        1.56720        0.40463
H         38.32065        1.59009       -1.36736
C         41.27178        0.76096       -0.60185
H         39.67302       -0.61372       -1.43622
H         39.74017       -0.62378        0.33551
C         42.69865       -0.15215       -0.66062
H         41.34468        1.39956        0.28594
H         41.27768        1.40897       -1.48567
C         44.22371        0.58079       -0.72217
H         42.62457       -0.79514       -1.54498
H         42.69666       -0.79610        0.22627
C         45.64224       -0.33694       -0.78210
H         44.30181        1.22285        0.16270
H         44.22881        1.22569       -1.60831
C         47.16458        0.38986       -0.84795
H         45.56410       -0.98147       -1.66500
H         45.63995       -0.97969        0.10564
C         48.57217       -0.53493       -0.91014
H         47.24809        1.03278        0.03582
H         47.17079        1.03420       -1.73453
C         50.09257        0.18326       -0.97808
H         48.48899       -1.17911       -1.79286
H         48.56775       -1.17828       -0.02285
C         51.48786       -0.75059       -1.04232
H         50.18158        0.82590       -0.09462
H         50.10150        0.82804       -1.86436
C         53.00757       -0.04270       -1.11158
H         51.39890       -1.39398       -1.92507
H         51.47990       -1.39474       -0.15564
C         54.39085       -0.98654       -1.17676
H         53.10191        0.59975       -0.22853
H         53.02015        0.60219       -1.99776
C         55.91120       -0.28928       -1.24747
H         54.29589       -1.62968       -2.05909
H         54.37859       -1.63069       -0.29012
C         57.28452       -1.24251       -1.31242
H         56.01025        0.35362       -0.36527
H         55.92740        0.35486       -2.13415
C         58.80675       -0.55457       -1.38478
H         57.18417       -1.88611       -2.19385
H         57.26806       -1.88574       -0.42517
C         60.17356       -1.51528       -1.44915
H         58.90948        0.08910       -0.50358
H         58.82568        0.08836       -2.27228
C         61.69878       -0.83441       -1.52260
H         60.06910       -2.15927       -2.32983
H         60.15355       -2.15752       -0.56124
C         63.06274       -1.80043       -1.58739
H         61.80411       -0.19078       -0.64170
H         61.71939       -0.19194       -2.41037
C         64.59212       -1.12489       -1.66022
H         62.95565       -2.44339       -2.46851
H         63.03987       -2.44303       -0.69980
C         65.95557       -2.09501       -1.72756
H         64.69943       -0.48338       -0.77802
H         64.61406       -0.48085       -2.54683
C         67.48980       -1.42437       -1.79752
H         65.84685       -2.73457       -2.61095
H         65.93018       -2.74028       -0.84199
C         68.85279       -2.39841       -1.86915
H         67.59912       -0.78725       -0.91238
H         67.51390       -0.77661       -2.68135
C         70.39060       -1.73269       -1.93494
H         68.74300       -3.03296       -2.75601
H         68.82532       -3.04812       -0.98691
C         71.75068       -2.70998       -2.01029
H         70.50215       -1.10037       -1.04665
H         70.41818       -1.08077       -2.81561
C         73.28683       -2.04734       -2.07329
H         71.64066       -3.34090       -2.89974
H         71.72274       -3.36346       -1.13084
C         74.63945       -3.02502       -2.14812
H         73.40036       -1.41650       -1.18419
H         73.31837       -1.39404       -2.95279
C         76.16378       -2.36026       -2.21359
H         74.53071       -3.65832       -3.03610
H         74.61466       -3.67775       -1.26796
C         77.50278       -3.33330       -2.28098
H         76.27865       -1.72337       -1.32896
H         76.19765       -1.71182       -3.09662
C         79.00233       -2.65873       -2.35453
H         77.39813       -3.97708       -3.16195
H         77.48538       -3.97888       -1.39527
C         80.32078       -3.62261       -2.41241
H         79.11838       -2.01082       -1.47805
H         79.03492       -2.01887       -3.24392
C         81.78512       -2.93165       -2.49140
H         80.22408       -4.27694       -3.28662
H         80.31211       -4.26190       -1.52188
C         83.07585       -3.88732       -2.54358
H         81.90149       -2.27659       -1.62016
H         81.81538       -2.29608       -3.38405
C         84.50194       -3.18017       -2.62707
H         82.98566       -4.54884       -3.41325
H         83.07563       -4.52333       -1.65053
C         85.75614       -4.13850       -2.66734
H         84.61900       -2.51598       -1.76270
H         84.53362       -2.55231       -3.52526
C         87.15023       -3.42728       -2.76211
H         85.66530       -4.81312       -3.52704
H         85.75873       -4.76343       -1.76627
C         88.35462       -4.40684       -2.77955
H         87.27456       -2.74650       -1.91160
H         87.19019       -2.81786       -3.67285
C         89.72255       -3.72030       -2.88476
H         88.26115       -5.09843       -3.62496
H         88.35395       -5.01331       -1.86627
H         89.81869       -3.14680       -3.81251
H         90.52732       -4.46820       -2.88205
H         89.90540       -3.04646       -2.04140
