272
	Energy:     487.3643675
C         -7.04480        3.23061       -0.00738
C         -5.71999        3.98577        0.03309
H         -7.14023        2.64809       -0.93068
H         -7.88500        3.93353        0.03075
H         -7.14137        2.54831        0.84170
C         -4.50494        3.04512       -0.01195
H         -5.68915        4.58671        0.95213
H         -5.68672        4.68270       -0.80938
C         -3.16759        3.81425        0.02220
H         -4.55549        2.44249       -0.93048
H         -4.55531        2.35130        0.83173
C         -1.93370        2.88219       -0.01344
H         -3.13436        4.42225        0.93857
H         -3.13103        4.50553       -0.82366
C         -0.58544        3.64970        0.01324
H         -1.98193        2.27162       -0.92752
H         -1.98123        2.19544        0.83521
C          0.66244        2.72110       -0.01348
H         -0.55331        4.26628        0.92381
H         -0.54949        4.33279       -0.83912
C          2.02508        3.48158        0.00659
H          0.61395        2.10153       -0.92082
H          0.61465        2.04258        0.84234
C          3.28453        2.55248       -0.01386
H          2.05907        4.10607        0.91059
H          2.06223        4.15681       -0.85294
C          4.66344        3.30330        0.00123
H          3.23410        1.92563       -0.91480
H          3.23496        1.88120        0.84878
C          5.93374        2.37204       -0.01631
H          4.70094        3.93323        0.90000
H          4.70233        3.97276       -0.86397
C          7.32941        3.11306       -0.00425
H          5.88079        1.74095       -0.91290
H          5.88222        1.70552        0.85107
C          8.61108        2.17966       -0.02217
H          7.37079        3.74522        0.89171
H          7.36974        3.77962       -0.87262
C         10.02310        2.91233       -0.01139
H          8.55580        1.54759       -0.91703
H          8.55833        1.51499        0.84736
C         11.31723        1.97776       -0.03255
H         10.06796        3.54364        0.88432
H         10.06411        3.57882       -0.88036
C         12.74473        2.70430       -0.02176
H         11.26017        1.34749       -0.92804
H         11.26444        1.31234        0.83680
C         14.05249        1.76989       -0.04856
H         12.79243        3.33228        0.87578
H         12.78546        3.37303       -0.88928
C         15.49439        2.49267       -0.03702
H         13.99422        1.14346       -0.94640
H         14.00099        1.10172        0.81892
C         16.81668        1.55972       -0.07129
H         15.54431        3.11560        0.86373
H         15.53382        3.16521       -0.90171
C         18.27178        2.28096       -0.05891
H         16.75759        0.93839       -0.97248
H         16.76780        0.88759        0.79331
C         19.60902        1.35057       -0.10173
H         18.32350        2.89803        0.84567
H         18.30897        2.95803       -0.92014
C         21.07603        2.07213       -0.08926
H         19.54924        0.73463       -1.00648
H         19.56397        0.67419        0.75975
C         22.42805        1.14505       -0.14060
H         21.12931        2.68365        0.81895
H         21.11021        2.75338       -0.94725
C         23.90561        1.86834       -0.12984
H         22.36744        0.53355       -1.04825
H         22.38792        0.46529        0.71844
C         25.27161        0.94487       -0.18838
H         23.96044        2.47602        0.78081
H         23.93619        2.55216       -0.98586
C         26.75825        1.67078       -0.18216
H         25.20978        0.33553       -1.09736
H         25.23720        0.26386        0.66988
C         28.13683        0.75077       -0.24541
H         26.81483        2.27762        0.72891
H         26.78483        2.35444       -1.03840
C         29.63105        1.47961       -0.24710
H         28.07333        0.14029       -1.15348
H         28.10860        0.07155        0.61446
C         31.02028        0.56247       -0.31203
H         29.68977        2.08926        0.66194
H         29.65340        2.15978       -1.10621
C         32.52060        1.29390       -0.32466
H         30.95471       -0.05258       -1.21683
H         30.99819       -0.11179        0.55189
C         33.91818        0.37867       -0.38867
H         32.58203        1.90956        0.58012
H         32.53873        1.96765       -1.18889
C         35.42327        1.11173       -0.41397
H         33.85022       -0.24340       -1.28846
H         33.90162       -0.28833        0.48097
C         36.82659        0.19715       -0.47571
H         35.48802        1.73514        0.48523
H         35.43747        1.77745       -1.28448
C         38.33539        0.93033       -0.51358
H         36.75599       -0.43265       -1.36988
H         36.81451       -0.46190        0.40001
C         39.74169        0.01488       -0.57318
H         38.40406        1.56134        0.38001
H         38.34635        1.58819       -1.39010
C         41.25347        0.74636       -0.62186
H         39.66817       -0.62158       -1.46236
H         39.73271       -0.63724        0.30773
C         42.66000       -0.17167       -0.68051
H         41.32656        1.38330        0.26716
H         41.26225        1.39800       -1.50304
C         44.17433        0.55616       -0.73732
H         42.58316       -0.81266       -1.56614
H         42.65263       -0.81898        0.20394
C         45.57852       -0.36618       -0.79648
H         44.25219        1.19675        0.14866
H         44.18223        1.20385       -1.62144
C         47.09515        0.35618       -0.85876
H         45.49788       -1.00943       -1.68013
H         45.57134       -1.01094        0.08981
C         48.49480       -0.57200       -0.91941
H         47.17795        0.99843        0.02557
H         47.10354        1.00190       -1.74433
C         50.01353        0.14343       -0.98519
H         48.40996       -1.21588       -1.80222
H         48.48663       -1.21584       -0.03248
C         51.40699       -0.79169       -1.04751
H         50.10129        0.78615       -0.10167
H         50.02358        0.78834       -1.87134
C         52.92754       -0.08412       -1.11563
H         51.31771       -1.43548       -1.92995
H         51.39694       -1.43534       -0.16046
C         54.31375       -1.02670       -1.17919
H         53.02008        0.55870       -0.23268
H         52.94003        0.56035       -2.00209
C         55.83570       -0.32724       -1.24909
H         54.22006       -1.67033       -2.06131
H         54.30127       -1.67022       -0.29209
C         57.21419       -1.27717       -1.31334
H         55.93272        0.31571       -0.36671
H         55.85097        0.31677       -2.13585
C         58.73704       -0.58546       -1.38449
H         57.11644       -1.92072       -2.19509
H         57.19902       -1.92052       -0.42615
C         60.10790       -1.54212       -1.44929
H         58.83809        0.05747       -0.50256
H         58.75505        0.05827       -2.27142
C         61.63108       -0.85725       -1.52082
H         60.00666       -2.18526       -2.33097
H         60.08996       -2.18567       -0.56228
C         62.99485       -1.81965       -1.58669
H         61.73555       -0.21503       -0.63878
H         61.65160       -0.21306       -2.40736
C         64.51788       -1.14035       -1.65733
H         62.89085       -2.46148       -2.46902
H         62.97424       -2.46434       -0.70056
C         65.87553       -2.10720       -1.72514
H         64.62495       -0.49991       -0.77430
H         64.54056       -0.49454       -2.54264
C         67.39801       -1.43195       -1.79380
H         65.76948       -2.74670       -2.60893
H         65.85258       -2.75412       -0.84068
C         68.75091       -2.40179       -1.86395
H         67.50667       -0.79403       -0.90914
H         67.42243       -0.78369       -2.67727
C         70.27264       -1.72898       -1.93062
H         68.64339       -3.03878       -2.74939
H         68.72632       -3.05116       -0.98132
C         71.62247       -2.70046       -2.00213
H         70.38185       -1.09295       -1.04468
H         70.29826       -1.07883       -2.81266
C         73.14358       -2.02885       -2.06858
H         71.51374       -3.33645       -2.88816
H         71.59717       -3.35082       -1.12024
C         74.49190       -3.00123       -2.13889
H         73.25269       -1.39229       -1.18300
H         73.16974       -1.37917       -2.95095
C         76.01314       -2.33064       -2.20817
H         74.38186       -3.63924       -3.02331
H         74.46666       -3.64952       -1.25548
C         77.36101       -3.30436       -2.27425
H         76.12232       -1.69027       -1.32534
H         76.03935       -1.68476       -3.09333
C         78.88389       -2.63605       -2.34906
H         77.24919       -3.94738       -3.15479
H         77.33578       -3.94733       -1.38696
C         80.23173       -3.61257       -2.40894
H         78.99406       -1.98953       -1.47085
H         78.91015       -1.99659       -3.23888
C         81.75810       -2.94842       -2.49061
H         80.11750       -4.26214       -3.28433
H         80.20585       -4.24829       -1.51648
C         83.10652       -3.92882       -2.54388
H         81.87023       -2.29508       -1.61770
H         81.78470       -2.31641       -3.38572
C         84.63747       -3.26917       -2.63236
H         82.98968       -4.58502       -3.41394
H         83.07966       -4.55695       -1.64610
C         85.98836       -4.25220       -2.68061
H         84.75177       -2.60994       -1.76421
H         84.66395       -2.64389       -3.53218
C         87.52335       -3.59387       -2.77362
H         85.87040       -4.91321       -3.54688
H         85.96118       -4.87479       -1.77895
C         88.87999       -4.57520       -2.82148
H         87.63855       -2.93229       -1.90742
H         87.54803       -2.97153       -3.67547
C         90.41667       -3.91195       -2.91451
H         88.76392       -5.23650       -3.68781
H         88.85435       -5.19752       -1.91957
C         91.78204       -4.88591       -2.96683
H         90.52999       -3.25270       -2.04633
H         90.43783       -3.28718       -3.81471
C         93.31693       -4.21210       -3.05764
H         91.67034       -5.54419       -3.83605
H         91.76105       -5.51209       -2.06745
C         94.69082       -5.17530       -3.11648
H         93.42667       -3.55689       -2.18596
H         93.33332       -3.58257       -3.95459
C         96.22058       -4.48987       -3.20334
H         94.58475       -5.82919       -3.98968
H         94.67583       -5.80714       -2.22091
C         97.59711       -5.44399       -3.27466
H         96.32877       -3.84268       -2.32547
H         96.23212       -3.85126       -4.09395
C         99.11922       -4.75154       -3.34992
H         97.49612       -6.08635       -4.15692
H         97.58592       -6.08874       -2.38828
C        100.48742       -5.70218       -3.44698
H         99.23041       -4.12395       -2.45824
H         99.12868       -4.09245       -4.22560
C        101.99948       -5.01053       -3.49349
H        100.39033       -6.31617       -4.34962
H        100.47429       -6.37601       -2.58254
C        103.34669       -5.96205       -3.63653
H        102.11752       -4.42418       -2.57495
H        102.01239       -4.31152       -4.33772
C        104.84521       -5.27901       -3.62925
H        103.25406       -6.52054       -4.57509
H        103.32418       -6.68806       -2.81567
C        106.16224       -6.22983       -3.83129
H        104.96704       -4.75799       -2.67253
H        104.87045       -4.52249       -4.42213
C        107.64150       -5.55891       -3.75939
H        106.07506       -6.71605       -4.80995
H        106.12802       -7.01705       -3.06939
C        108.92590       -6.50630       -4.00511
H        107.75799       -5.10190       -2.76979
H        107.68617       -4.75166       -4.49972
C        110.37958       -5.84138       -3.88423
H        108.84505       -6.93862       -5.00942
H        108.88400       -7.33549       -3.28935
C        111.63217       -6.78614       -4.15175
H        110.48800       -5.42539       -2.87573
H        110.44006       -5.00405       -4.58930
C        113.05759       -6.11925       -4.00196
H        111.55723       -7.19047       -5.16823
H        111.58674       -7.63653       -3.46125
C        114.27691       -7.06784       -4.27745
H        113.16071       -5.72264       -2.98503
H        113.12869       -5.26855       -4.68997
C        115.67757       -6.39975       -4.11593
H        114.20322       -7.46259       -5.29792
H        114.22792       -7.92565       -3.59610
C        116.85557       -7.36418       -4.39579
H        115.78315       -6.00973       -3.09654
H        115.75849       -5.54565       -4.79887
C        118.23346       -6.71458       -4.23727
H        116.78124       -7.75747       -5.41638
H        116.80477       -8.22231       -3.71547
H        118.36763       -5.87831       -4.93105
H        119.02664       -7.44395       -4.44760
H        118.39128       -6.34655       -3.21829
