92
	Energy:     227.6716420
C        -10.68917        3.29199       -0.00511
C         -9.39228        4.09721        0.07724
H        -10.78007        2.77117       -0.95977
H        -11.55800        3.95406        0.09771
H        -10.74537        2.54858        0.80092
C         -8.13209        3.21385       -0.03280
H         -9.38479        4.65262        1.01466
H         -9.39720        4.83783       -0.73946
C         -6.81197        4.02994        0.02563
H         -8.17673        2.63970       -0.95613
H         -8.14686        2.48966        0.80139
C         -5.52410        3.14900       -0.03072
H         -6.80906        4.63461        0.92946
H         -6.80827        4.72711       -0.83236
C         -4.16995        3.95077        0.00335
H         -5.56320        2.53232       -0.92628
H         -5.55301        2.46486        0.83645
C         -2.85429        3.06229       -0.01692
H         -4.16958        4.58434        0.88945
H         -4.16258        4.61889       -0.87503
C         -1.44335        3.82973       -0.00202
H         -2.90063        2.42321       -0.89991
H         -2.90076        2.40368        0.86496
C         -0.09179        2.91875       -0.00477
H         -1.43302        4.47602        0.87926
H         -1.42711        4.48240       -0.88729
C          1.39711        3.64440       -0.00104
H         -0.15290        2.27310       -0.88586
H         -0.15497        2.27437        0.88228
C          2.80638        2.71157       -0.00478
H          1.42483        4.28800        0.88470
H          1.42428        4.29218       -0.88620
C          4.37395        3.41589       -0.00093
H          2.74082        2.07379       -0.89326
H          2.74002        2.06764        0.88024
C          5.84432        2.48256       -0.00836
H          4.41217        4.05098        0.89117
H          4.41074        4.06252       -0.88514
C          7.44630        3.19096        0.00156
H          5.79360        1.85356       -0.90451
H          5.79059        1.83319        0.87291
C          8.93406        2.26765       -0.00043
H          7.48865        3.82401        0.89500
H          7.49425        3.83579       -0.88317
C         10.51736        2.99230        0.00862
H          8.90051        1.63052       -0.89150
H          8.89634        1.62388        0.88593
C         11.97799        2.07788       -0.01753
H         10.56953        3.61187        0.91085
H         10.56210        3.65113       -0.86575
C         13.52927        2.80961        0.01874
H         11.95427        1.47252       -0.93091
H         11.94402        1.40022        0.84279
C         14.95603        1.85102       -0.00132
H         13.56676        3.42088        0.92828
H         13.58115        3.48303       -0.84489
C         16.56794        2.51015        0.00362
H         14.87881        1.22859       -0.89906
H         14.88518        1.20331        0.87938
C         18.02513        1.48268       -0.00619
H         16.61979        3.14662        0.89511
H         16.61836        3.15545       -0.88236
C         19.73593        2.02601        0.01250
H         17.91835        0.86684       -0.90571
H         17.90969        0.83894        0.87302
C         21.18399        0.98234       -0.02094
H         19.84603        2.63017        0.92036
H         19.84782        2.68738       -0.85442
C         22.79248        1.58368        0.02554
H         21.13478        0.38508       -0.93948
H         21.11535        0.29625        0.83183
C         24.12481        0.59746       -0.02983
H         22.91121        2.16281        0.94919
H         22.92083        2.27516       -0.81552
C         25.54602        1.33553        0.03278
H         24.12099        0.00725       -0.95532
H         24.10668       -0.11570        0.80443
C         26.83623        0.42909       -0.02098
H         25.60376        1.92453        0.95644
H         25.61577        2.04661       -0.79997
C         28.15125        1.24869        0.04091
H         26.84600       -0.15993       -0.94521
H         26.83774       -0.27840        0.81636
C         29.45606        0.43207       -0.04517
H         28.18560        1.82399        0.97468
H         28.16736        1.97544       -0.78095
C         30.62902        1.41939       -0.00932
H         29.48864       -0.15468       -0.97187
H         29.52863       -0.28171        0.78591
H         30.52916        2.14769       -0.82234
H         31.60859        0.94207       -0.11181
H         30.62517        1.98245        0.93110
