182
	Energy:     367.6864258
C         -8.40702        3.27802       -0.00845
C         -7.08601        4.04213        0.04528
H         -8.50197        2.70816       -0.93743
H         -9.25273        3.97406        0.04254
H         -8.49936        2.58297        0.83350
C         -5.85730        3.11620       -0.01889
H         -7.06234        4.63220        0.96701
H         -7.06164        4.75085       -0.79302
C         -4.52081        3.89475        0.02940
H         -5.90571        2.52244       -0.93716
H         -5.90146        2.41234        0.82401
C         -3.26869        2.97840       -0.02027
H         -4.49611        4.49803        0.94210
H         -4.49285        4.59257       -0.81959
C         -1.91583        3.75278        0.01621
H         -3.31437        2.37001       -0.92862
H         -3.31097        2.28777        0.83385
C         -0.64661        2.83764       -0.01640
H         -1.89172        4.37096        0.91895
H         -1.88688        4.43587       -0.84418
C          0.72778        3.60052        0.00764
H         -0.69307        2.21466       -0.91528
H         -0.69154        2.16142        0.84814
C          2.01124        2.68111       -0.01195
H          0.75565        4.23050        0.90279
H          0.75997        4.27101       -0.86132
C          3.40993        3.42906        0.00322
H          1.96178        2.04843       -0.90466
H          1.96181        2.01565        0.85948
C          4.70724        2.50325       -0.00966
H          3.44349        4.06536        0.89444
H          3.44617        4.09188       -0.87037
C          6.13113        3.23619        0.00145
H          4.65412        1.86676       -0.90005
H          4.65324        1.84334        0.86482
C          7.44346        2.30386       -0.01030
H          6.17035        3.87347        0.89221
H          6.17141        3.89626       -0.87335
C          8.89236        3.02380        0.00045
H          7.38709        1.66828       -0.90145
H          7.38587        1.64518        0.86436
C         10.22161        2.08598       -0.01409
H          8.93634        3.65822        0.89323
H          8.93604        3.68461       -0.87326
C         11.69463        2.79616       -0.00180
H         10.16284        1.45422       -0.90788
H         10.16201        1.42582        0.85906
C         13.04282        1.85461       -0.02170
H         11.74225        3.42540        0.89448
H         11.74045        3.45972       -0.87312
C         14.53840        2.55895       -0.00727
H         12.98271        1.22824       -0.91915
H         12.98314        1.19146        0.84907
C         15.90725        1.61608       -0.03470
H         14.58864        3.18149        0.89350
H         14.58458        3.22659       -0.87531
C         17.42307        2.31878       -0.01794
H         15.84688        0.99627       -0.93663
H         15.84959        0.94866        0.83288
C         18.81351        1.37744       -0.05538
H         17.47506        2.93314        0.88827
H         17.46754        2.99197       -0.88167
C         20.34643        2.08250       -0.03636
H         18.75372        0.76544       -0.96261
H         18.76006        0.70432        0.80803
C         21.75815        1.14561       -0.08584
H         20.39943        2.68756        0.87598
H         20.38725        2.76247       -0.89484
C         23.30436        1.85627       -0.06602
H         21.69909        0.54169       -0.99848
H         21.71117        0.46621        0.77300
C         24.73558        0.92613       -0.12739
H         23.35797        2.45300        0.85173
H         23.34001        2.54243       -0.91969
C         26.29100        1.64448       -0.11087
H         24.67665        0.32784       -1.04370
H         24.69720        0.24239        0.72842
C         27.73851        0.72209       -0.18068
H         26.34534        2.23737        0.80932
H         26.32042        2.33311       -0.96274
C         29.29916        1.44886       -0.17388
H         27.67866        0.12373       -1.09685
H         27.71017        0.03897        0.67601
C         30.75868        0.53365       -0.24633
H         29.35497        2.04516        0.74401
H         29.32181        2.13368       -1.02900
C         32.32100        1.26799       -0.25571
H         30.69698       -0.07189       -1.15762
H         30.74056       -0.14248        0.61615
C         33.78755        0.35819       -0.32526
H         32.37942        1.87474        0.65514
H         32.33685        1.94278       -1.11894
C         35.34861        1.09787       -0.35431
H         33.72351       -0.25973       -1.22802
H         33.77843       -0.30615        0.54645
C         36.81697        0.19106       -0.41846
H         35.41091        1.71851        0.54687
H         35.35826        1.75948       -1.22782
C         38.37453        0.93307       -0.46595
H         36.75046       -0.43998       -1.31190
H         36.81458       -0.46077        0.46266
C         39.83959        0.02669       -0.52603
H         38.44172        1.56610        0.42621
H         38.37923        1.58297       -1.34829
C         41.39204        0.76802       -0.58681
H         39.77046       -0.61389       -1.41245
H         39.84128       -0.61619        0.36161
C         42.84910       -0.14044       -0.64630
H         41.46462        1.40859        0.29954
H         41.39372        1.41104       -1.47424
C         44.39535        0.59744       -0.71412
H         42.77697       -0.78523       -1.52944
H         42.85243       -0.77984        0.24382
C         45.84013       -0.31555       -0.77599
H         44.47341        1.24052        0.16997
H         44.39638        1.23873       -1.60284
C         47.37952        0.41602       -0.84616
H         45.76428       -0.96042       -1.65880
H         45.84305       -0.95579        0.11351
C         48.80783       -0.50431       -0.91129
H         47.46326        1.05862        0.03778
H         47.38248        1.05865       -1.73397
C         50.34000        0.21752       -0.98160
H         48.72724       -1.14759       -1.79487
H         48.80837       -1.14713       -0.02367
C         51.74730       -0.71348       -1.04893
H         50.43021        0.85897       -0.09741
H         50.34753        0.86214       -1.86801
C         53.27176       -0.00509       -1.11903
H         51.66073       -1.35550       -1.93289
H         51.74351       -1.35855       -0.16295
C         54.65334       -0.94987       -1.18643
H         53.36974        0.63603       -0.23539
H         53.28637        0.64048       -2.00472
C         56.16859       -0.25728       -1.25704
H         54.55981       -1.59215       -2.06954
H         54.64375       -1.59568       -0.30099
C         57.52075       -1.21686       -1.32216
H         56.27533        0.38506       -0.37525
H         56.19182        0.38751       -2.14319
C         59.02341       -0.53843       -1.39411
H         57.42051       -1.86124       -2.20308
H         57.50525       -1.86172       -0.43604
C         60.34521       -1.50986       -1.45572
H         59.13845        0.10631       -0.51508
H         59.05466        0.10438       -2.28149
C         61.82978       -0.83799       -1.52882
H         60.24077       -2.15726       -2.33404
H         60.32590       -2.15325       -0.56849
C         63.12432       -1.81380       -1.58787
H         61.95026       -0.19096       -0.65216
H         61.86571       -0.19647       -2.41700
C         64.58395       -1.13551       -1.65998
H         63.02070       -2.46320       -2.46494
H         63.10538       -2.45744       -0.70067
C         65.85744       -2.10574       -1.72026
H         64.70474       -0.48850       -0.78328
H         64.61911       -0.49183       -2.54669
C         67.28574       -1.40704       -1.78666
H         65.76085       -2.75316       -2.59974
H         65.84370       -2.75420       -0.83635
C         68.54370       -2.36420       -1.85347
H         67.40133       -0.76482       -0.90564
H         67.31516       -0.75564       -2.66802
C         69.93778       -1.63807       -1.91197
H         68.45689       -3.00571       -2.73843
H         68.53923       -3.02135       -0.97577
C         71.17973       -2.58423       -1.98640
H         70.04653       -1.00247       -1.02515
H         69.96002       -0.97779       -2.78702
C         72.54389       -1.83792       -2.04103
H         71.09839       -3.22090       -2.87554
H         71.18390       -3.24814       -1.11362
C         73.75952       -2.78777       -2.12089
H         72.65205       -1.20666       -1.15087
H         72.56303       -1.17273       -2.91262
C         75.09949       -2.05078       -2.17532
H         73.68077       -3.42108       -3.01220
H         73.77060       -3.45474       -1.25099
H         75.16515       -1.40080       -3.05391
H         75.92842       -2.76745       -2.23412
H         75.25800       -1.43887       -1.28136
