242
	Energy:     529.0449013
C         -7.65168        3.25414       -0.00643
C         -6.32824        4.01287        0.03506
H         -7.74688        2.67628       -0.93398
H         -8.49401        3.95443        0.03507
H         -7.74684        2.56720        0.83797
C         -5.10751        3.07803       -0.01084
H         -6.30036        4.61005        0.95913
H         -6.29859        4.71389       -0.80197
C         -3.77029        3.85095        0.02109
H         -5.15718        2.47825       -0.93459
H         -5.15559        2.38090        0.82743
C         -2.52869        2.92527       -0.01169
H         -3.74057        4.45774        0.94208
H         -3.73728        4.54427       -0.82015
C         -1.17824        3.69537        0.01082
H         -2.57597        2.31493       -0.92971
H         -2.57422        2.23747        0.83311
C          0.07867        2.77231       -0.01084
H         -1.14945        4.31319        0.92410
H         -1.14514        4.37807       -0.83907
C          1.44656        3.53335        0.00466
H          0.03086        2.15089       -0.91989
H          0.03192        2.09502        0.84348
C          2.71612        2.60819       -0.01022
H          1.47796        4.16054        0.90926
H          1.48182        4.20636       -0.85458
C          4.10369        3.35724        0.00112
H          2.66590        1.97858       -0.91102
H          2.66639        1.93955        0.85282
C          5.38531        2.42813       -0.01136
H          4.13950        3.99019        0.89909
H          4.14174        4.02366       -0.86525
C          6.79316        3.16514       -0.00165
H          5.33211        1.79444       -0.90693
H          5.33247        1.76465        0.85740
C          8.08768        2.23219       -0.01527
H          6.83359        3.79983        0.89306
H          6.83373        3.82866       -0.87175
C          9.51538        2.95899       -0.00540
H          8.03184        1.59823       -0.90903
H          8.03262        1.57036        0.85590
C         10.82429        2.02337       -0.02286
H          9.55977        3.59201        0.88924
H          9.55765        3.62280       -0.87613
C         12.27085        2.74274       -0.01184
H         10.76653        1.39205       -0.91759
H         10.76847        1.36043        0.84804
C         13.59572        1.80609       -0.03534
H         12.31834        3.37155        0.88510
H         12.31365        3.40917       -0.88091
C         15.05981        2.52111       -0.02269
H         13.53683        1.17941       -0.93290
H         13.54079        1.14008        0.83350
C         16.40187        1.58517       -0.05417
H         15.10963        3.14394        0.87806
H         15.10181        3.19177       -0.88863
C         17.88187        2.29882       -0.03986
H         16.34249        0.96448       -0.95569
H         16.34949        0.91475        0.81148
C         19.24166        1.36523       -0.08083
H         17.93343        2.91457        0.86556
H         17.92175        2.97471       -0.90179
C         20.73567        2.08010       -0.06550
H         19.18212        0.75112       -0.98676
H         19.19343        0.68975        0.78113
C         22.11287        1.15018       -0.11650
H         20.78862        2.68871        0.84460
H         20.77229        2.76128       -0.92334
C         23.61866        1.86827       -0.10200
H         22.05307        0.54199       -1.02634
H         22.07026        0.47021        0.74218
C         25.01198        0.94288       -0.16192
H         23.67291        2.47141        0.81161
H         23.65117        2.55327       -0.95690
C         26.52706        1.66545       -0.15164
H         24.95142        0.33805       -1.07391
H         24.97620        0.26064        0.69526
C         27.93424        0.74477       -0.21749
H         26.58280        2.26680        0.76304
H         26.55485        2.35104       -1.00618
C         29.45598        1.47229       -0.21589
H         27.87231        0.13907       -1.12878
H         27.90607        0.06406        0.64115
C         30.87403        0.55586       -0.28364
H         29.51371        2.07679        0.69657
H         29.47871        2.15414       -1.07355
C         32.39981        1.28794       -0.29489
H         30.81019       -0.05544       -1.19102
H         30.85352       -0.11908        0.57974
C         33.82518        0.37473       -0.36096
H         32.46024        1.90009        0.61227
H         32.41741        1.96204       -1.15876
C         35.35265        1.11012       -0.38736
H         33.75912       -0.24557       -1.26202
H         33.81161       -0.29135        0.50939
C         36.78150        0.19869       -0.45001
H         35.41656        1.73225        0.51273
H         35.36545        1.77439       -1.25891
C         38.30875        0.93546       -0.49113
H         36.71304       -0.43140       -1.34406
H         36.77345       -0.45785        0.42761
C         39.73718        0.02398       -0.55084
H         38.37686        1.56707        0.40203
H         38.31758        1.59050       -1.36971
C         41.26295        0.75980       -0.60383
H         39.66601       -0.61405       -1.43902
H         39.73281       -0.62485        0.33250
C         42.68725       -0.15391       -0.66257
H         41.33582        1.39820        0.28412
H         41.26919        1.40829       -1.48731
C         44.21104        0.57839       -0.72352
H         42.61280       -0.79665       -1.54708
H         42.68455       -0.79828        0.22402
C         45.62798       -0.33994       -0.78334
H         44.28903        1.22028        0.16149
H         44.21643        1.22363       -1.60942
C         47.15001        0.38625       -0.84877
H         45.54944       -0.98432       -1.66632
H         45.62499       -0.98290        0.10425
C         48.55719       -0.53906       -0.91077
H         47.23334        1.02909        0.03507
H         47.15640        1.03071       -1.73526
C         50.07824        0.17869       -0.97852
H         48.47366       -1.18318       -1.79350
H         48.55218       -1.18238       -0.02347
C         51.47442       -0.75541       -1.04255
H         50.16698        0.82132       -0.09503
H         50.08718        0.82341       -1.86483
C         52.99560       -0.04767       -1.11178
H         51.38527       -1.39880       -1.92528
H         51.46608       -1.39938       -0.15574
C         54.38096       -0.99138       -1.17682
H         53.08956        0.59478       -0.22869
H         53.00798        0.59706       -1.99806
C         55.90333       -0.29390       -1.24757
H         54.28607       -1.63450       -2.05917
H         54.36863       -1.63530       -0.29003
C         57.27950       -1.24666       -1.31254
H         56.00196        0.34893       -0.36528
H         55.91920        0.35010       -2.13435
C         58.80388       -0.55831       -1.38490
H         57.17949       -1.89016       -2.19408
H         57.26326       -1.88976       -0.42520
C         60.17345       -1.51848       -1.44945
H         58.90633        0.08516       -0.50353
H         58.82258        0.08459       -2.27240
C         61.70036       -0.83736       -1.52277
H         60.06952       -2.16226       -2.33034
H         60.15387       -2.16078       -0.56157
C         63.06582       -1.80305       -1.58782
H         61.80579       -0.19403       -0.64165
H         61.72112       -0.19476       -2.41045
C         64.59544       -1.12751       -1.66041
H         62.95935       -2.44578       -2.46918
H         63.04348       -2.44590       -0.70040
C         65.95794       -2.09746       -1.72786
H         64.70335       -0.48626       -0.77809
H         64.61808       -0.48328       -2.54686
C         67.48960       -1.42667       -1.79754
H         65.84998       -2.73704       -2.61134
H         65.93327       -2.74310       -0.84253
C         68.84817       -2.40019       -1.86888
H         67.59985       -0.78948       -0.91256
H         67.51478       -0.77877       -2.68124
C         70.37925       -1.73336       -1.93450
H         68.73949       -3.03532       -2.75549
H         68.82184       -3.05024       -0.98683
C         71.73098       -2.70931       -2.00901
H         70.49173       -1.10039       -1.04677
H         70.40788       -1.08143       -2.81513
C         73.25588       -2.04410       -2.07206
H         71.62234       -3.34152       -2.89774
H         71.70460       -3.36296       -1.12961
C         74.59688       -3.01988       -2.14568
H         73.37001       -1.41197       -1.18392
H         73.28793       -1.39091       -2.95165
C         76.10758       -2.35140       -2.21115
H         74.48929       -3.65475       -3.03270
H         74.57340       -3.67267       -1.26550
C         77.43484       -3.32317       -2.27785
H         76.22216       -1.71336       -1.32729
H         76.14080       -1.70269       -3.09404
C         78.92412       -2.64485       -2.35072
H         77.32984       -3.96738       -3.15848
H         77.41688       -3.96926       -1.39251
C         80.23786       -3.60887       -2.40885
H         79.03735       -1.99676       -1.47402
H         78.95385       -2.00398       -3.23949
C         81.70485       -2.91613       -2.48785
H         80.13671       -4.26256       -3.28301
H         80.22490       -4.24819       -1.51837
C         83.00796       -3.87350       -2.54017
H         81.81332       -2.26062       -1.61613
H         81.72751       -2.28062       -3.38070
C         84.46586       -3.17697       -2.62545
H         82.90547       -4.53398       -3.40907
H         82.99557       -4.50727       -1.64562
C         85.75584       -4.14969       -2.66657
H         84.57089       -2.51200       -1.76037
H         84.48550       -2.54995       -3.52461
C         87.23856       -3.49550       -2.76291
H         85.63380       -4.81860       -3.52598
H         85.72647       -4.76909       -1.76272
C         88.51151       -4.52409       -2.79017
H         87.35863       -2.81870       -1.90861
H         87.27101       -2.88307       -3.67223
C         90.05192       -3.94029       -2.88540
H         88.35331       -5.19244       -3.64369
H         88.44065       -5.12811       -1.87826
C         91.36380       -4.99473       -2.95033
H         90.19472       -3.29275       -2.01271
H         90.09297       -3.30861       -3.78016
C         92.96257       -4.37961       -3.03924
H         91.19635       -5.63122       -3.82792
H         91.29041       -5.62837       -2.05817
C         94.42212       -5.34226       -3.08819
H         93.06017       -3.72290       -2.16861
H         92.97553       -3.76348       -3.94450
C         96.04089       -4.62152       -3.18404
H         94.31838       -6.00372       -3.95677
H         94.40525       -5.95928       -2.18153
C         97.58685       -5.50255       -3.25045
H         96.11080       -3.96909       -2.30680
H         96.01822       -3.99892       -4.08515
C         99.19037       -4.74424       -3.33247
H         97.52539       -6.14774       -4.13428
H         97.61006       -6.13511       -2.35576
C        100.69812       -5.61907       -3.40777
H         99.27254       -4.10322       -2.44720
H         99.18294       -4.10598       -4.22351
C        102.21365       -4.86633       -3.47393
H        100.65649       -6.25732       -4.29798
H        100.73948       -6.26755       -2.52495
C        103.56670       -5.75690       -3.56632
H        102.33511       -4.24314       -2.58011
H        102.23949       -4.20544       -4.34812
C        104.94902       -5.01463       -3.62841
H        103.53853       -6.38992       -4.46176
H        103.63770       -6.42874       -2.70185
H        105.03847       -4.33602       -4.48446
H        105.78029       -5.73671       -3.73884
H        105.17816       -4.45121       -2.71585
