39
	Energy:      18.1685486
C         -5.83392        3.07450        0.16920
C         -4.38559        3.27027       -0.10931
C         -5.04492        1.93397       -0.47985
H         -3.74170        3.40392        0.75234
H         -4.17466        4.01717       -0.88063
H         -6.53519        3.65467       -0.42286
H         -6.10346        3.03639        1.22041
N         -4.98176        0.62040        0.29346
H         -5.15384        1.79441       -1.55328
C         -4.97550       -0.69700       -0.35169
N         -3.78007       -1.21153       -0.76280
C         -6.06763       -1.68605       -0.33470
C         -5.89728       -2.94130       -0.98811
N         -4.70250       -3.39671       -1.41589
C         -3.68761       -2.50324       -1.18603
N         -2.37174       -2.95110       -1.20496
H         -1.83324       -2.22203       -0.74099
H         -2.29770       -3.84904       -0.73830
N         -7.27444       -1.72507        0.33430
C         -7.80481       -2.92420        0.09638
N         -7.17094       -3.59780       -0.92768
H         -8.64939       -3.34421        0.61342
C         -7.86041       -4.63578       -1.80615
C         -9.38531       -4.35234       -2.22106
C        -10.07029       -5.71277       -2.60348
H         -9.45974       -3.65207       -3.05619
H         -9.93864       -3.92983       -1.37161
C         -9.26347       -6.62175       -1.71960
C         -8.09523       -6.06777       -1.31105
H         -7.24560       -4.68679       -2.71308
H         -9.54635       -7.66716       -1.59475
H         -7.33574       -6.67713       -0.83563
C        -11.64122       -5.71137       -2.55825
H         -9.82330       -6.00123       -3.63570
O        -12.23141       -7.00759       -2.42123
H        -12.05066       -5.07073       -1.77262
H        -12.01835       -5.32645       -3.51692
H        -13.20196       -6.89430       -2.48402
H         -4.26150        0.64065        1.01889
