26
	Energy:      19.5387765
C         -3.93689        2.43367        0.08904
C         -3.59075        3.47761        1.17002
C         -2.96847        2.56064       -1.09592
H         -4.96686        2.59238       -0.26637
H         -3.89793        1.42140        0.50001
C         -1.55587        2.27301       -0.55643
C         -1.16627        3.32697        0.49402
H         -0.83333        2.27507       -1.38157
H         -1.52637        1.27074       -0.11223
C         -2.14529        3.31775        1.67958
H         -2.03207        2.41672        2.28581
H         -1.90793        4.16689        2.33918
C         -3.05823        3.98561       -1.67849
H         -3.22458        1.83378       -1.87503
C         -2.67979        5.01749       -0.60601
H         -4.08537        4.18116       -2.02324
H         -2.40674        4.09076       -2.55023
C         -1.23375        4.71880       -0.14955
H         -0.89244        5.47816        0.56297
H         -0.55234        4.76151       -1.00904
H         -0.14736        3.12597        0.85476
C         -3.68779        4.88234        0.55618
H         -4.29087        3.37916        2.00805
H         -2.72965        6.03124       -1.01563
H         -3.50108        5.64184        1.32012
H         -4.71082        5.05015        0.18590
