41
	Energy:     201.0113647
C         -3.02615        2.84825        0.02080
C         -2.81176        1.49060        0.03177
C         -1.89570        3.64019        0.01949
H         -4.02272        3.29364        0.01110
C         -0.50871        3.14242        0.01875
H         -2.08293        4.72186        0.00899
C         -0.25366        1.73011        0.02033
C         -1.47598        0.95609        0.03457
H         -1.42824       -0.13187        0.04365
H         -3.69030        0.84302        0.03350
C          0.34492        4.41143       -0.00458
C          1.79977        4.33292       -0.04498
H          0.05878        5.01338        0.87136
H          0.03443        4.97147       -0.90110
C          2.74428        5.27958        0.05893
H          2.18513        3.38698       -0.22366
H          2.51381        6.32055        0.19038
H          3.77712        4.95589       -0.01722
O          0.91399        0.87929       -0.00642
C          2.35809        1.29017       -0.01002
C          3.83217        0.42438       -0.29582
H          2.50897        1.81522        0.93597
H          2.38414        1.86572       -0.93224
O          3.81507       -0.94595        0.10479
C          5.37696        1.27216        0.00760
H          3.85454        0.36031       -1.39072
N          6.77088        0.64395       -0.00011
H          5.25834        1.80887        0.95441
H          5.40650        2.01774       -0.79500
C          8.09058        1.34425        0.32492
H          6.88929       -0.08234       -0.70151
C          8.44525        2.79718       -0.10230
H          8.30928        2.98039       -1.17205
H          9.52048        2.99968        0.08632
H          7.91461        3.55094        0.48226
C          9.37167        0.52930       -0.10303
H          8.14727        1.35321        1.42150
H          9.22039       -0.55078       -0.12905
H         10.19513        0.71234        0.61104
H          9.77066        0.84283       -1.08073
H          3.77327       -1.04772        1.06693
