55
	Energy:     138.8075566
C         -1.62479        1.27838        0.01066
C         -2.05204        2.74755       -0.14042
C         -0.92167        3.70087       -0.43653
H         -2.63850        3.09625        0.72020
H         -2.72759        2.84565       -1.00429
C         -2.82562        0.44603       -0.50994
H         -3.74253        0.65576        0.06649
H         -2.64529       -0.62864       -0.41495
H         -3.04378        0.65184       -1.56377
O         -1.55860        0.96556        1.38438
O         -0.42217        0.98045       -0.74864
O          0.90230        1.26223        0.00999
C          0.40107        3.55835        0.33436
H         -1.32018        4.71791       -0.37436
H         -0.69612        3.53017       -1.50054
C          0.63805        2.14310        1.11938
C         -0.29614        1.22356        1.94576
C          1.64662        2.38090        2.34786
C          2.24028        1.19947        3.21161
C          1.60577       -0.16334        2.95410
O          0.37486       -0.07419        2.17311
H         -0.53215        1.64913        2.92403
C          0.78917        4.78873        1.19365
H          1.13478        3.65025       -0.50611
C          0.51726        6.20070        0.62620
H          0.58942        6.27636       -0.46421
H          1.19436        6.95117        1.05794
H         -0.49402        6.51341        0.91217
C          2.26496        4.69529        1.66288
H          0.13673        4.71163        2.06559
C          2.77095        3.29615        1.97535
H          2.34041        5.29368        2.58014
H          2.97198        5.12724        0.94576
H          3.48805        3.35941        2.80297
H          3.28247        2.83636        1.12678
H          1.02987        2.95720        3.06787
O          2.61812       -1.14479        2.26143
H          1.32081       -0.68990        3.87401
C          2.33297        1.59380        4.74146
H          3.28890        1.07519        2.93929
H          1.54464        2.27613        5.09035
H          3.27967        2.12433        4.92071
H          2.34422        0.73808        5.43059
C          3.83792       -1.76796        2.20233
O          4.00756       -2.64943        1.35308
C          5.02712       -1.42844        3.11651
C          6.42524       -2.17747        2.90126
H          4.73058       -1.63381        4.14708
H          5.23971       -0.36726        2.97721
C          7.43647       -1.64279        3.92550
H          6.84433       -1.99504        1.90190
H          6.34387       -3.26475        3.03589
O          8.62484       -2.30046        3.98414
H          8.77019       -3.05883        3.39294
O          7.22209       -0.69217        4.63698
