34
	Energy:      18.6279765
C         -4.24836        3.31146       -0.02747
C         -2.83610        4.09779       -0.05289
C         -1.44879        3.30577       -0.00547
H         -2.82964        4.78648        0.79952
H         -2.81404        4.70489       -0.96434
C         -0.15828        4.22688       -0.01531
H         -1.37823        2.63161       -0.86749
H         -1.40429        2.68459        0.89713
C          1.20586        3.46850        0.01370
H         -0.18892        4.89114        0.85783
H         -0.17600        4.86568       -0.90514
N          2.36953        4.37740        0.02491
H          1.30471        2.81695       -0.86211
H          1.26810        2.84549        0.90503
H          2.47560        4.84752       -0.85145
H          3.23449        3.81206        0.13424
C         -5.58465        4.24158       -0.15558
H         -4.30147        2.74185        0.90864
H         -4.24610        2.58554       -0.84994
C         -7.07070        3.60205       -0.07522
H         -5.51117        4.76434       -1.11581
H         -5.51986        4.99648        0.63597
C         -8.34047        4.56792       -0.26255
H         -7.18531        3.12350        0.90353
H         -7.15662        2.82464       -0.84197
C         -9.77326        3.91356       -0.11797
H         -8.30439        5.02383       -1.25871
H         -8.29486        5.37838        0.47371
C        -10.95627        4.94395       -0.33853
H         -9.85359        3.45159        0.87763
H         -9.85940        3.06584       -0.81538
H        -10.90631        5.79602        0.35359
H        -11.96984        4.52434       -0.20458
H        -10.95906        5.38371       -1.34608
