68
	Energy:     300.8551282
C         -0.81125        2.67444        0.06468
C         -1.22603        1.35835        0.03712
C         -0.29744        0.26395        0.02452
C          1.13868        0.50635        0.04370
C          1.50206        1.85657        0.04332
C          0.54734        2.91752        0.05976
H         -1.53660        3.48821        0.08801
H         -2.30868        1.22893        0.03341
H          0.86531        3.96076        0.07680
O         -0.82528       -1.01800        0.00073
C         -2.27139       -1.14318        0.00113
H         -2.72163       -0.71124        0.90780
H         -2.54603       -2.20203       -0.00960
H         -2.72743       -0.69090       -0.89305
C          2.34312       -0.53757        0.07775
O          2.14727       -1.72489       -0.02244
C          3.85508       -0.06226        0.20636
C          4.03429        1.29876        0.11115
C          2.91142        2.26570        0.02880
O          3.15944        3.46672       -0.02466
C          5.35749        1.77640        0.09136
C          6.56081        0.96165        0.20702
C          5.12580       -0.91981        0.39067
C          6.53003       -0.42655        0.46438
O          5.58957        3.14198       -0.01562
O          4.94449       -2.28622        0.37524
C          7.82348        1.75912        0.04754
C          9.19900        1.10139       -0.05006
H          7.81130        2.43821        0.91069
H          7.70315        2.35720       -0.87097
C          9.31380       -0.10373        0.89019
C          8.06318       -1.09774        0.99719
H          9.60102        0.26042        1.88975
H         10.15542       -0.72004        0.56976
C         10.17643        2.33743        0.17412
O          9.75642        3.49138        0.34984
C         11.68293        2.15542        0.04233
O         12.39730        3.38758        0.15783
H         11.92302        1.74911       -0.94031
H         12.03763        1.49967        0.83654
O          8.60517       -2.57918        1.10088
H          7.82212       -0.95133        2.08207
C          9.69361       -3.35089        0.22946
C          9.47475       -4.93646        0.43323
O         11.16394       -3.12595        0.46307
H          9.46156       -3.04521       -0.79132
C         12.12936       -4.09074       -0.18466
C         11.94330       -5.54310        0.30208
C         10.54126       -5.95954       -0.11732
H          8.50093       -5.21079        0.01724
H          9.41521       -5.11552        1.51410
C         13.62674       -3.76781        0.07305
H         11.99448       -4.05393       -1.27635
H         14.29767       -4.54117       -0.34472
H         13.84476       -3.72048        1.14438
H         13.93517       -2.82867       -0.38855
O         12.92820       -6.49020       -0.18298
H         12.04156       -5.58126        1.39281
N         10.34120       -7.37409        0.31008
H         10.50462       -5.99988       -1.21512
H          4.02666       -2.45648        0.06208
H          4.73569        3.63091        0.02736
H         11.94477        4.03983       -0.41374
O          9.42897        0.61816       -1.38156
H         10.31152        0.20518       -1.40821
H         10.46214       -7.44143        1.32424
H         11.14150       -7.92910       -0.02935
H         12.86890       -6.60306       -1.14694
