25
	Energy:      -7.0783622
C         -3.94077        3.22317       -0.00432
C         -2.70835        4.12665       -0.06938
C         -1.41284        3.31616       -0.00113
H         -2.73751        4.84278        0.76095
H         -2.72696        4.70884       -0.99874
C         -0.18689        4.23217       -0.02039
H         -1.36855        2.62247       -0.84956
H         -1.40411        2.71057        0.91325
C          1.10973        3.42687        0.03900
H         -0.23441        4.92108        0.83260
H         -0.20301        4.84477       -0.93072
N          2.26007        4.32309        0.04599
H          1.17828        2.75442       -0.82314
H          1.13111        2.81202        0.94499
H          2.26853        4.87840       -0.80838
H          3.11794        3.77276        0.03821
C         -5.22936        4.03987       -0.10297
H         -3.93238        2.65932        0.93644
H         -3.90663        2.49117       -0.82039
C         -6.46178        3.15741        0.01222
H         -5.25722        4.57379       -1.06007
H         -5.25436        4.79569        0.69063
H         -6.48022        2.40197       -0.77964
H         -7.36983        3.76250       -0.07368
H         -6.48672        2.64396        0.97872
