22
	Energy:       5.0575764
C         -4.07149        3.37035       -0.02622
C         -2.66754        4.08101       -0.04474
C         -1.29427        3.27851        0.00398
H         -2.66383        4.76179        0.81272
H         -2.64743        4.66049       -0.96596
C         -0.03541        4.24233       -0.01142
H         -1.21160        2.60850       -0.86225
H         -1.22803        2.64823        0.89781
C          1.34175        3.51028        0.00681
H         -0.09063        4.89246        0.87069
H         -0.09039        4.88096       -0.89794
N          2.53711        4.38109        0.01377
H          1.41267        2.84198       -0.85752
H          1.39270        2.90517        0.90926
H          2.67077        4.87076       -0.84934
H          3.38327        3.78469        0.11147
C         -5.32233        4.34827       -0.21924
H         -4.17891        2.83002        0.92302
H         -4.08384        2.60800       -0.81326
H         -5.41708        5.11251        0.56453
H         -6.29715        3.82054       -0.21580
H         -5.30865        4.89811       -1.17101
