36
	Energy:     240.0089483
C         -2.91919        3.99075       -0.42485
C         -2.54967        2.67681       -0.36736
H         -3.98251        4.24050       -0.42658
H         -2.23796        4.81602       -0.35742
C         -3.72056        1.74032       -0.11523
C         -1.15790        2.08458        0.01397
C         -1.64602        0.79861        0.70709
C         -3.06525        0.43036        0.22057
H         -3.61990       -0.09090        1.01299
H         -3.10490       -0.22185       -0.66076
H         -4.41346        1.65802       -0.96358
H         -4.31912        2.07157        0.74907
C          0.19026        1.65392       -0.78467
H         -0.79298        2.75656        0.79722
C         -0.63391       -0.30334        0.41872
H         -1.72071        1.02147        1.77772
C          0.57633        0.27806       -0.31468
H         -1.12034       -0.94040       -0.33911
H         -0.48055       -0.96695        1.27067
C          1.52740        2.45423       -0.46738
H          0.04655        1.59093       -1.87052
C          2.78778        1.68919        0.34821
H          1.22900        3.28379        0.18950
H          1.88456        2.89203       -1.40968
C          2.09683        0.32169       -0.08219
H          2.37300       -0.50772        0.58383
H          2.49940        0.09554       -1.08988
H          0.59811       -0.43771       -1.14776
C          4.25664        0.88756        0.01977
H          4.26902       -0.20126        0.17570
H          5.04733        1.18904        0.72973
H          4.62318        1.04677       -1.00679
C          3.71521        3.00425        0.04996
H          3.21083        3.96467        0.20540
H          4.13069        3.03964       -0.97340
H          4.56681        3.09310        0.74878
