83
	Energy:     172.3057053
C          3.00065        0.88324        0.79650
C          2.70307       -0.44589        0.06239
H          3.48615        1.61502        0.13919
H          3.63884        0.74355        1.67351
H          2.06989        1.35861        1.14248
C          2.12783       -0.07250       -1.31922
H          1.22011        0.54070       -1.21060
H          2.83719        0.51669       -1.91135
H          1.85259       -0.95716       -1.90120
C          1.59694       -1.17615        0.84701
H          0.68990       -0.56006        0.92374
H          1.91864       -1.41022        1.86720
H          1.31137       -2.11169        0.35497
C          3.93151       -1.34189       -0.04570
C          4.93537       -2.03013       -0.06874
C          6.24143       -2.72894       -0.03833
C          6.31742       -4.20037        0.00662
C          7.44074       -1.97095       -0.05640
C          8.64473       -2.73330       -0.01539
C          8.72355       -4.18712        0.03734
H          9.58869       -2.18019       -0.05133
C          7.54095       -4.98033        0.03358
H          5.36959       -4.74033        0.00832
C          7.50035       -0.43077       -0.32491
O          6.39367        0.33720        0.15809
C          6.80190        1.70348        0.09789
C          8.31082        1.67277        0.03403
H          6.42537        2.24833        0.97065
H          6.37301        2.17984       -0.79288
O          8.67526        0.27905        0.12469
H          8.76945        2.26941        0.83265
H          8.66678        2.09033       -0.91735
H          7.50349       -0.33465       -1.41990
C         10.07013       -4.70631        0.05846
C         11.27306       -4.97072        0.03511
C         12.73221       -5.24682       -0.08340
C         13.45383       -4.11097       -0.83681
H         13.02121       -3.93815       -1.82763
H         14.51737       -4.34855       -0.97979
H         13.41055       -3.16587       -0.28257
C         13.40058       -5.38565        1.29606
H         12.92824       -6.16704        1.90024
H         14.46238       -5.64837        1.19052
H         13.35488       -4.44990        1.86523
C         12.93174       -6.55709       -0.86266
H         12.33653       -6.56826       -1.78254
H         12.63088       -7.42295       -0.26210
H         13.98205       -6.70051       -1.14411
C          7.52981       -6.53076        0.03507
C          7.50087       -7.76654        0.02611
C          7.38405       -9.31107        0.00905
C          6.07889       -9.91811        0.01201
C          8.52954      -10.21229       -0.01322
C          8.43789      -11.66042       -0.03540
C          5.84216      -11.33345       -0.00556
C          7.05434      -12.18298       -0.02720
H          5.20759       -9.26274        0.02895
H          6.91693      -13.26652       -0.03559
H          9.52710       -9.77325       -0.01105
C          9.78901      -12.55000       -0.04755
C          4.33739      -11.80540       -0.00025
C          3.13201      -12.09570        0.00742
C         10.84041      -13.21902        0.01041
C          1.62483      -12.67551        0.03056
C          0.32709      -11.76725       -0.02228
H          1.52552      -13.28523        0.93961
H          1.53376      -13.37329       -0.81376
C         -1.06268      -12.50526        0.01543
H          0.31614      -11.17010       -0.94054
H          0.31154      -11.07000        0.82237
H         -1.20981      -13.20072       -0.82041
H         -1.89319      -11.78009       -0.05470
H         -1.23612      -13.05734        0.94796
C         12.04131      -14.27187        0.39328
C         13.39858      -14.75693       -0.33724
H         11.46799      -15.21178        0.32162
H         12.27276      -14.15826        1.45923
C         14.87709      -14.38530        0.03502
H         13.31766      -14.81777       -1.42599
H         13.44227      -15.82154       -0.02565
H         15.33954      -13.69386       -0.68068
H         15.51966      -15.29029       -0.04003
H         15.03386      -14.01850        1.05307
