31
	Energy:      20.3397424
C         -4.23407        3.29364       -0.02472
C         -2.80925        4.08255       -0.04954
C         -1.40924        3.29968       -0.00348
H         -2.80206        4.77094        0.80311
H         -2.78704        4.68815       -0.96187
C         -0.12137        4.23108       -0.01359
H         -1.33120        2.62705       -0.86633
H         -1.35554        2.67720        0.89810
C          1.24824        3.47931        0.01214
H         -0.15446        4.89347        0.86085
H         -0.14412        4.87129       -0.90265
N          2.41716        4.37824        0.02580
H          1.34438        2.82454       -0.86117
H          1.31101        2.85780        0.90627
H          2.52882        4.85318       -0.85534
H          3.27836        3.80761        0.12854
C         -5.59164        4.22888       -0.15436
H         -4.28009        2.72228        0.91136
H         -4.22335        2.56835       -0.84837
C         -7.09408        3.62677       -0.07930
H         -5.51175        4.74744       -1.11555
H         -5.52137        4.97963        0.63969
C         -8.37079        4.55883       -0.25815
H         -7.24391        3.15723        0.89795
H         -7.21758        2.85737       -0.84802
C         -9.70210        3.71142       -0.08623
H         -8.36095        5.03897       -1.24988
H         -8.35455        5.39513        0.46036
H         -9.75995        2.87942       -0.80554
H        -10.63312        4.28683       -0.22034
H         -9.77787        3.24830        0.91003
