50
	Energy:     145.9469011
C         -0.01487        0.34951       -0.00059
C         -0.75190       -0.81824       -0.00050
C          1.39628        0.27914       -0.00073
C          2.14716       -0.94542       -0.00077
C          1.36585       -2.10320       -0.00065
C         -0.06369       -2.03498       -0.00054
H         -0.52447        1.31464       -0.00051
H         -1.84244       -0.77938       -0.00035
H          1.90969        1.24172       -0.00074
H          1.80810       -3.08990       -0.00051
H         -0.66063       -2.94816       -0.00041
C          3.68909       -0.79932       -0.00055
O          4.03173        0.39367        0.00019
C          4.91987       -1.77744       -0.00099
C          4.94396       -3.17113       -0.00346
C          6.21484       -3.93777       -0.00422
C          7.53768       -3.38706       -0.00240
C          7.51389       -1.99649        0.00016
C          6.25332       -1.23342        0.00072
O          6.45753        0.13948        0.00291
H          5.57044        0.57384        0.00224
O          8.63607       -4.27931       -0.00424
H          4.01482       -3.73597       -0.00519
H          8.43361       -1.41897        0.00141
H          6.12211       -5.02496       -0.00649
C         10.12895       -3.96036        0.00056
C         11.19773       -5.31639       -0.00533
H         10.33160       -3.37663        0.90416
H         10.33553       -3.36490       -0.89442
C         12.89055       -5.21242       -0.00313
H         10.92461       -5.90734       -0.88776
H         10.92248       -5.91702        0.86983
C         13.85804       -6.59262       -0.00214
H         13.18170       -4.63823        0.88395
H         13.18384       -4.63767       -0.88914
C         15.49890       -6.46411       -0.00937
H         13.59223       -7.18668       -0.88429
H         13.59882       -7.18085        0.88584
C         16.41399       -7.79890        0.00361
H         15.80208       -5.87802        0.86615
H         15.79544       -5.89855       -0.90051
C         17.97759       -7.56569       -0.02956
H         16.16387       -8.42410       -0.86182
H         16.19448       -8.38518        0.90394
C         18.88188       -8.82350        0.00416
H         18.27733       -6.94494        0.82287
H         18.24748       -7.01440       -0.93801
H         18.77047       -9.39811        0.93025
H         19.94425       -8.53264       -0.04910
H         18.70625       -9.49425       -0.84376
