28
	Energy:      23.7137830
C         -4.22624        3.28348       -0.02316
C         -2.79515        4.07571       -0.04777
C         -1.38986        3.29674       -0.00261
H         -2.78710        4.76410        0.80492
H         -2.77240        4.68010       -0.96091
C         -0.10432        4.23196       -0.01183
H         -1.30839        2.62450       -0.86572
H         -1.33155        2.67299        0.89858
C          1.26620        3.48833        0.00682
H         -0.13943        4.89471        0.86232
H         -0.13052        4.87451       -0.90216
N          2.44883        4.36449        0.03874
H          1.36163        2.82840       -0.85986
H          1.33063        2.86364        0.90907
H          2.55503        4.86131       -0.86709
H          3.28923        3.81145        0.12436
C         -5.59996        4.22027       -0.15342
H         -4.26494        2.71210        0.91329
H         -4.20713        2.55953       -0.84796
C         -7.12761        3.65245       -0.08492
H         -5.51518        4.73590       -1.11543
H         -5.52522        4.96815        0.64220
C         -8.36853        4.63285       -0.26991
H         -7.29402        3.17615        0.88923
H         -7.26778        2.87640       -0.84686
H         -8.46008        5.40076        0.51016
H         -9.32432        4.07281       -0.21219
H         -8.40764        5.13508       -1.24554
