11
	Energy:      -4.8965961
C         -8.72941        2.26786        0.00712
C         -7.45450        3.09275        0.05758
H         -8.76430        1.54820        0.83130
H         -8.80159        1.71493       -0.93494
H         -9.60570        2.91873        0.08693
C         -6.21624        2.21774       -0.03957
H         -7.42554        3.66290        0.99269
H         -7.45558        3.81628       -0.76520
H         -6.17256        1.50654        0.79155
H         -5.31257        2.83434       -0.00674
H         -6.20786        1.65188       -0.97662
