51
	Energy:     241.4578698
C         -4.49626        2.55542       -0.79722
C         -4.25221        1.42785        0.16330
C         -2.86317        1.28989        0.62797
C         -1.92820        2.23931        0.40425
C         -2.11507        3.77021        0.11087
C         -3.64563        3.77515       -0.42645
H         -3.88717        4.59664       -1.10637
H         -4.23399        3.93274        0.50663
H         -5.56134        2.81618       -0.66306
H         -4.35163        2.23703       -1.82701
O         -5.06411        0.56180        0.40853
C         -2.56559        5.23213        0.83293
H         -3.60747        5.42853        1.11442
H         -2.43091        6.00537        0.04445
H         -2.01202        5.52870        1.71944
C         -0.51534        4.37861        0.15653
C          0.66513        3.39405        0.43505
C          0.53660        2.25562       -0.53266
C         -0.68648        1.47935       -0.11856
H          1.37669        1.55548       -0.47943
H          0.47517        2.61113       -1.56681
H         -0.36877        0.77962        0.66951
H         -0.96007        0.85740       -0.98617
C         -0.13150        5.53730       -0.78711
H         -0.44102        4.84149        1.15451
C          1.35259        5.63280       -1.18368
H         -0.37334        6.48391       -0.28213
H         -0.74394        5.50354       -1.69111
C          2.36333        5.40637       -0.03901
H          1.53209        6.61612       -1.63639
H          1.53087        4.89427       -1.97423
C          2.09115        4.01019        0.58811
H          0.48511        2.96213        1.43599
C          3.83985        5.30803       -0.60229
C          4.42278        4.03742        0.01907
C          3.22741        3.11784        0.06438
H          4.81038        4.21726        1.02867
H          5.23238        3.61921       -0.58865
H          3.40229        2.24694        0.70298
H          3.03246        2.77409       -0.95760
H          2.26304        4.10929        1.67280
C          2.25228        6.51961        1.02363
H          1.26185        6.56013        1.48451
H          2.45111        7.50488        0.58601
H          2.97482        6.36925        1.83576
C          4.80547        6.46931       -0.36957
H          3.78675        5.15288       -1.68864
H          5.77968        6.24033       -0.82020
H          4.98937        6.64761        0.69539
H          4.44046        7.39366       -0.82421
H         -2.60359        0.23774        0.75198
