57
	Energy:     191.3835373
C         -4.92929        0.88036       -0.01061
C         -5.16310       -0.51380       -0.00265
C         -4.06738       -1.36838       -0.00658
C         -2.71180       -0.87658       -0.01915
C         -2.39930        0.50058       -0.02666
C         -3.57687        1.37503       -0.02335
H         -3.44181        2.45547       -0.03483
H         -1.91973       -1.61645       -0.02700
H         -4.24032       -2.44383       -0.00260
C         -0.86905        1.07788       -0.07211
C          0.64514        0.26958        0.00018
H         -0.82907        1.80070        0.75286
H         -0.82753        1.66109       -1.00085
O          1.92346        1.12178       -0.10025
H          0.66310       -0.49228       -0.78624
H          0.70195       -0.20813        0.98351
C          3.32139        0.50973       -0.25983
C          3.33669       -1.00968        0.09576
C          4.66971       -1.76726        0.07729
H          2.70824       -1.51203       -0.65160
H          2.83218       -1.21910        1.04833
C          5.96505       -0.99470        0.16273
H          4.71203       -2.38082       -0.83558
H          4.67470       -2.51741        0.88268
C          5.92741        0.49471        0.42649
H          6.52567       -1.16062       -0.77110
H          6.61214       -1.46313        0.91910
C          4.60374        1.29583        0.46569
H          6.56202        0.91729       -0.36108
H          6.48369        0.69486        1.35599
H          3.54946        0.55415       -1.33091
O         -6.13177        1.53216       -0.01078
O         -6.49768       -0.85985        0.00771
C         -6.96232       -2.19608        0.00065
H         -8.06311       -2.15971        0.00026
H         -6.66374       -2.73061        0.90487
H         -6.66288       -2.72294       -0.90782
C         -6.44283        2.90171       -0.00710
H         -7.54585        2.96224       -0.00547
H         -6.11108        3.40143       -0.91702
H         -6.10888        3.39755        0.90423
C          5.08421        2.83779        0.34982
H          4.23344        1.31129        1.50361
C          6.48239        3.40691       -0.14062
C          4.08349        3.84696       -0.15408
H          5.23620        3.06349        1.41807
C          4.79547        5.18149        0.06200
H          3.16798        3.79317        0.43571
H          3.85570        3.70074       -1.21357
C          6.26210        4.93678       -0.28184
H          4.69293        5.50130        1.10911
H          4.36387        5.97538       -0.55391
H          6.84873        3.00775       -1.09449
H          7.27146        3.22450        0.60627
O          7.08284        5.68116        0.62740
H          6.48982        5.28562       -1.29749
H          7.80192        6.07981        0.14033
