33
	Energy:     112.5126929
C         -5.38320        3.01385       -0.00019
O         -4.06681        2.42253        0.01751
H         -5.51332        3.85416        0.68798
H         -6.11271        2.24526        0.32431
H         -5.70656        3.28364       -1.01439
C         -2.85346        3.07032        0.00157
C         -2.55254        4.41894       -0.00336
C         -1.14004        4.92082       -0.00425
H         -3.37048        5.14011       -0.00264
C          0.07795        4.13863       -0.00236
H         -1.05789        6.00582       -0.00486
C         -0.28738        2.76413       -0.00053
C         -1.70003        2.26150        0.00162
H          0.46230        1.97627        0.00067
H         -1.88072        1.17981        0.00480
C          1.61803        4.91769       -0.00152
C          3.00095        4.65163       -0.00091
H          1.37603        5.98076       -0.00130
C          4.45484        5.47266       -0.00042
H          3.27492        3.58996       -0.00083
C          4.87151        6.78176       -0.00023
C          6.34491        7.20374       -0.00006
H          4.19095        7.62234       -0.00027
C          7.30461        6.27537       -0.00002
C          6.94403        4.84541       -0.00009
H          8.37242        6.49736        0.00006
O          5.59042        4.51718       -0.00027
O          7.83467        4.01924       -0.00000
O          6.61330        8.58342       -0.00003
C          7.96100        9.14467       -0.00000
H          7.87477       10.24410        0.00000
H          8.54175        8.89293       -0.89884
H          8.54174        8.89292        0.89885
