14
	Energy:      -1.2506741
C         -8.80336        2.46442        0.04034
C         -7.44661        3.13926        0.06308
H         -8.85613        1.69162        0.83589
H         -8.90540        1.86959       -0.89111
H         -9.58188        3.24772        0.15928
C         -6.14851        2.33901       -0.01665
H         -7.41142        3.70363        1.01528
H         -7.44679        3.85421       -0.77708
C         -4.86099        3.31442       -0.01303
H         -6.18938        1.70436       -0.93959
H         -6.13140        1.59032        0.80088
H         -4.83284        3.92900       -0.91981
H         -3.92031        2.75068       -0.04650
H         -4.81608        4.12226        0.77747
