8
	Energy:      -4.7343653
C         -8.74900        2.29740        0.00000
C         -7.57330        3.24822       -0.00000
H         -8.56921        1.46382        0.68544
H         -8.91393        1.89008       -1.00195
H         -9.66048        2.81321        0.31651
H         -6.66182        2.73241       -0.31651
H         -7.40837        3.65554        1.00195
H         -7.75310        4.08180       -0.68544
